
 OpenBabel05092317383D

 28 29  0  0  0  0  0  0  0  0999 V2000
   -3.4440   -0.7035   -0.5668 C   0  0  0  0  0  0  0  0  0  0  0  0
   -2.1700   -0.1352   -1.1821 C   0  0  0  0  0  0  0  0  0  0  0  0
   -3.4772    0.0243    0.7732 C   0  0  2  0  0  0  0  0  0  0  0  0
   -3.4511   -1.8106   -0.4734 H   0  0  0  0  0  0  0  0  0  0  0  0
   -4.3151   -0.3945   -1.1904 H   0  0  0  0  0  0  0  0  0  0  0  0
   -2.7109   -0.4813    1.4085 H   0  0  0  0  0  0  0  0  0  0  0  0
   -4.8053   -0.0066    1.4847 C   0  0  0  0  0  0  0  0  0  0  0  0
   -2.9447    1.4431    0.4684 C   0  0  0  0  0  0  0  0  0  0  0  0
   -5.3763   -1.1578    1.8502 C   0  0  0  0  0  0  0  0  0  0  0  0
   -5.3142    0.9247    1.7159 H   0  0  0  0  0  0  0  0  0  0  0  0
   -4.8985   -2.1105    1.6434 H   0  0  0  0  0  0  0  0  0  0  0  0
   -6.3317   -1.1502    2.3647 H   0  0  0  0  0  0  0  0  0  0  0  0
   -2.4043    1.3602   -0.9782 C   0  0  0  0  0  0  0  0  0  0  0  0
   -2.0409   -0.4278   -2.2458 H   0  0  0  0  0  0  0  0  0  0  0  0
   -1.2802   -0.4693   -0.6004 H   0  0  0  0  0  0  0  0  0  0  0  0
   -2.1598    1.6241    1.2319 H   0  0  0  0  0  0  0  0  0  0  0  0
   -3.6982    2.2594    0.5203 H   0  0  0  0  0  0  0  0  0  0  0  0
   -3.2537    1.6246   -1.6526 H   0  0  0  0  0  0  0  0  0  0  0  0
   -1.2331    2.2531   -1.3613 C   0  0  0  0  0  0  0  0  0  0  0  0
   -0.6263    3.1647   -0.4718 C   0  0  0  0  0  0  0  0  0  0  0  0
    0.4157    3.9360   -0.8826 N   0  0  0  0  0  0  0  0  0  0  0  0
    0.9082    3.8658   -2.1457 C   0  0  0  0  0  0  0  0  0  0  0  0
    0.3401    2.9879   -3.0662 C   0  0  0  0  0  0  0  0  0  0  0  0
   -0.7310    2.1848   -2.6731 C   0  0  0  0  0  0  0  0  0  0  0  0
    1.7393    4.4950   -2.4353 H   0  0  0  0  0  0  0  0  0  0  0  0
    0.7257    2.9300   -4.0758 H   0  0  0  0  0  0  0  0  0  0  0  0
   -1.1685    1.5077   -3.3957 H   0  0  0  0  0  0  0  0  0  0  0  0
   -0.9679    3.2841    0.5434 H   0  0  0  0  0  0  0  0  0  0  0  0
  1  2  1  0  0  0  0
  1  3  1  0  0  0  0
  1  4  1  0  0  0  0
  1  5  1  0  0  0  0
  2 14  1  0  0  0  0
  2 15  1  0  0  0  0
  3  6  1  1  0  0  0
  3  7  1  0  0  0  0
  3  8  1  0  0  0  0
  7  9  2  0  0  0  0
  7 10  1  0  0  0  0
  8 16  1  0  0  0  0
  8 17  1  0  0  0  0
  9 11  1  0  0  0  0
  9 12  1  0  0  0  0
 13  2  1  0  0  0  0
 13  8  1  0  0  0  0
 13 18  1  0  0  0  0
 13 19  1  0  0  0  0
 19 20  2  0  0  0  0
 20 21  1  0  0  0  0
 20 28  1  0  0  0  0
 21 22  2  0  0  0  0
 22 23  1  0  0  0  0
 22 25  1  0  0  0  0
 23 24  2  0  0  0  0
 23 26  1  0  0  0  0
 24 19  1  0  0  0  0
 24 27  1  0  0  0  0
M  END
